Circuit: * C:\Users\roco2\Desktop\NanoSat\spice\1_solar_bank_cutoff_simu.asc

Limiting rise time of source v3 to 0.1
Limiting fall time of source v3 to 0.1
Direct Newton iteration for .op point succeeded.

Date: Sun May 24 11:22:50 2020
Total elapsed time: 0.182 seconds.

tnom = 27
temp = 27
method = modified trap
totiter = 3841
traniter = 3826
tranpoints = 1137
accept = 803
rejected = 334
matrix size = 19
fillins = 9
solver = Normal
Matrix Compiler1: 1.28 KB object code size  0.6/0.3/[0.2]
Matrix Compiler2: 1.53 KB object code size  0.3/0.4/[0.3]

